# ****************************************************************************
# *  Copyright: National ICT Australia,  2007 - 2010                         *
# *  Developed at the ATP lab, Networked Systems research theme              *
# *  Author(s): Athanassios Boulis, Yuriy Tselishchev                        *
# *  This file is distributed under the terms in the attached LICENSE file.  *
# *  If you do not find this file, copies can be found by writing to:        *
# *                                                                          *
# *      NICTA, Locked Bag 9013, Alexandria, NSW 1435, Australia             *
# *      Attention:  License Inquiry.                                        *
# *                                                                          *
# ***************************************************************************/

[General]

# =============================================
# Always include the main Castalia.ini file
# =============================================
include ../Parameters/Castalia.ini


#fulltime simulation
#sim-time-limit = 1000s
sim-time-limit = 1300s

#for programming simulation only
#sim-time-limit = 18s

SN.node[*].Communication.Routing.npackages = 2




# important wireless channel switch to allow mobility
SN.wirelessChannel.onlyStaticNodes = false
SN.wirelessChannel.sigma = 0
SN.wirelessChannel.bidirectionalSigma = 0

# Choose a radio and set the Tx power to a low value so
# that nodes mobility has a better effect on connectivity
SN.node[*].Communication.Radio.RadioParametersFile = "../Parameters/Radio/NRF24.txt"
SN.node[*].Communication.Radio.TxOutputPower = "-7"

SN.node[*].Communication.RoutingProtocolName = "WSDFN"

# These tests use big packets (2kb) to show interference clearly
# This requires to set the max pkt size in all communication layers
SN.node[*].Communication.Routing.maxNetFrameSize = 2500
SN.node[*].Communication.MAC.macMaxPacketSize = 2500
SN.node[*].Communication.Radio.maxPhyFrameSize = 2500

# Throughput test application is used to send 2000-byte
# packets to node 0 (which by default is the receiving 
# node for this app).5 packets per second will be send 
SN.node[*].ApplicationName = "ThroughputTest"
SN.node[*].Application.packet_rate = 0
SN.node[*].Application.constantDataPayload = 2000
# applications trace info for node 0 (receiving node)
# is turned on, to show some interesting patterns
SN.node[0].Application.collectTraceInfo = false

# Nodes are moving, so seeing their location may be useful
# SN.node[*].MobilityManager.collectTraceInfo = true

# ==========================================================
# The default configuration sets node 0 to be mobile, while 
# sending nodes 1 and 2 are static. Receiving node 0 will 
# move in diagonal pattern, allowing it to receive packets 
# from node 1 and some time later from node 2. This will be
# clearly seen on the trace file and the collected output.
# ==========================================================




#SN.node[0].MobilityManagerName = "LineMobilityManager"

#SN.node[0].MobilityManager.updateInterval = 100
#SN.node[0].MobilityManager.xCoorDestination = 200
#SN.node[0].MobilityManager.yCoorDestination = 200
#SN.node[0].MobilityManager.speed = 15


# =========================================================
# Similar to General, but with CSMA in MAC layer.
# =========================================================

[Config CSMA]

SN.node[0].xCoor = 0
SN.node[0].yCoor = 0
SN.node[1].xCoor = 5
SN.node[1].yCoor = 0
SN.node[2].xCoor = 10
SN.node[2].yCoor = 0
SN.node[3].xCoor = 15
SN.node[3].yCoor = 0
SN.node[4].xCoor = 20
SN.node[4].yCoor = 0

#include ../Parameters/MAC/CSMA.ini

SN.node[*].Communication.MACProtocolName = "TunableMAC"
SN.node[*].Communication.MAC.dutyCycle = 1.0
SN.node[*].Communication.MAC.randomTxOffset = 0
SN.node[*].Communication.MAC.backoffType = 2 

# ===========================================================
# InterferenceTest2 is similar to InterferenceTest1, but
# this time node 2 approaches much closer to receiving node 0
# while node 1 is located further away. While node 1 is still 
# able to reach node 0 most of the time, when node 2 moves
# very close to the receiver, its transmissions become
# stronger and node 0 is able to receive packets from node 2
# in spite of the fact that node 1 is still transmitting
# ===========================================================


[Config TesteDiagonal]
#include ../Parameters/MAC/CSMA.ini


# These tests include 4 nodes each, coordinates will be specified manually
SN.numNodes = 5

SN.node[4].Communication.Routing.isController = true
SN.node[0..3].Communication.Routing.isController = false
SN.node[0].Communication.Routing.isSink = true
SN.node[1..4].Communication.Routing.isSink = false
SN.node[*].Communication.Routing.collectTraceInfo = true
SN.node[*].Communication.Routing.lowRssi = -80.0


SN.node[*].Communication.MACProtocolName = "TunableMAC"
SN.node[*].Communication.MAC.dutyCycle = 1.0
SN.node[*].Communication.MAC.randomTxOffset = 0
SN.node[*].Communication.MAC.backoffType = 2 

SN.node[0].xCoor = 0
SN.node[0].yCoor = 0
SN.node[1].xCoor = 0
SN.node[1].yCoor = 5
SN.node[2].xCoor = 5
SN.node[2].yCoor = 5
SN.node[3].xCoor = 5
SN.node[3].yCoor = 0
SN.node[4].xCoor = 10
SN.node[4].yCoor = 0

SN.node[*].Application.collectTraceInfo = true

[Config Teste5]
#include ../Parameters/MAC/CSMA.ini




SN.field_x = 4	# meters
SN.field_y = 4	# meters

SN.node[*].Communication.MACProtocolName = "TunableMAC"
SN.node[*].Communication.MAC.dutyCycle = 1.0
SN.node[*].Communication.MAC.randomTxOffset = 0
SN.node[*].Communication.MAC.backoffType = 2 
SN.node[*].Communication.MAC.phyFrameOverhead = 4

#SN.node[*].Communication.Routing.programmingDuration = 7
SN.node[*].Communication.Routing.spaceDelay = 80 #160 #80
SN.node[*].Communication.Routing.dataTime = 1.5 #2.5 #1.5
SN.node[*].Communication.Routing.npackages = 1





SN.numNodes = 5
SN.node[*].Communication.Routing.numNodes = 5

SN.node[0..3].Communication.Routing.isController = false
SN.node[4].Communication.Routing.isController = true
SN.node[0].Communication.Routing.isSink = true
SN.node[1..4].Communication.Routing.isSink = false




SN.node[*].Communication.Routing.collectTraceInfo = true
#true
SN.node[*].Communication.Routing.lowRssi = -80.0


SN.node[0].xCoor = 0
SN.node[0].yCoor = 0
SN.node[1].xCoor = 0
SN.node[1].yCoor = 2
SN.node[2].xCoor = 2
SN.node[2].yCoor = 2
SN.node[3].xCoor = 2
SN.node[3].yCoor = 0
SN.node[4].xCoor = 1
SN.node[4].yCoor = 1
#SN.node[5].xCoor = 1
#SN.node[5].yCoor = 1


SN.node[*].Application.collectTraceInfo = false


[Config TesteDiagonal16]
#include ../Parameters/MAC/CSMA.ini




SN.field_x = 16	# meters
SN.field_y = 16	# meters

SN.node[*].Communication.MACProtocolName = "TunableMAC"
SN.node[*].Communication.MAC.dutyCycle = 1.0
SN.node[*].Communication.MAC.randomTxOffset = 0
SN.node[*].Communication.MAC.backoffType = 2 

SN.node[*].Communication.Routing.programmingDuration = 7
SN.node[*].Communication.Routing.spaceDelay = 80 #160 #80
SN.node[*].Communication.Routing.dataTime = 1.5 #2.5 #1.5
SN.node[*].Communication.Routing.npackages = 2




SN.numNodes = 16
SN.node[*].Communication.Routing.numNodes = 16

SN.node[0..3].Communication.Routing.isController = false
SN.node[5..15].Communication.Routing.isController = false
SN.node[4].Communication.Routing.isController = true

SN.node[0].Communication.Routing.isSink = true
SN.node[1..15].Communication.Routing.isSink = false

SN.node[*].Communication.Routing.collectTraceInfo = false
#true
SN.node[*].Communication.Routing.lowRssi = -80.0


SN.node[0].xCoor = 5
SN.node[0].yCoor = 0
SN.node[1].xCoor = 0
SN.node[1].yCoor = 0
SN.node[2].xCoor = 10
SN.node[2].yCoor = 0
SN.node[3].xCoor = 15
SN.node[3].yCoor = 0
SN.node[4].xCoor = 5
SN.node[4].yCoor = 5

SN.node[5].xCoor = 0
SN.node[5].yCoor = 5
SN.node[6].xCoor = 10
SN.node[6].yCoor = 5
SN.node[7].xCoor = 15
SN.node[7].yCoor = 5
SN.node[8].xCoor = 0
SN.node[8].yCoor = 10
SN.node[9].xCoor = 5
SN.node[9].yCoor = 10

SN.node[10].xCoor = 10
SN.node[10].yCoor = 10
SN.node[11].xCoor = 15
SN.node[11].yCoor = 10
SN.node[12].xCoor = 0
SN.node[12].yCoor = 15
SN.node[13].xCoor = 5
SN.node[13].yCoor = 15
SN.node[14].xCoor = 10
SN.node[14].yCoor = 15
SN.node[15].xCoor = 15
SN.node[15].yCoor = 15

SN.node[*].Application.collectTraceInfo = false

[Config TesteDiagonal25]
#include ../Parameters/MAC/CSMA.ini

SN.field_x = 21 # meters
SN.field_y = 21	# meters

SN.node[*].Communication.MACProtocolName = "TunableMAC"
SN.node[*].Communication.MAC.dutyCycle = 1.0
SN.node[*].Communication.MAC.randomTxOffset = 0
SN.node[*].Communication.MAC.backoffType = 2 


SN.numNodes = 25
SN.node[*].Communication.Routing.numNodes = 25

SN.node[0..3].Communication.Routing.isController = false
SN.node[5..24].Communication.Routing.isController = false
SN.node[4].Communication.Routing.isController = true
SN.node[*].Communication.Routing.programmingDuration = 11
SN.node[*].Communication.Routing.programmingFirstTime = 6.2
SN.node[*].Communication.Routing.spaceDelay = 90
SN.node[*].Communication.Routing.dataTime = 4.0


SN.node[0].Communication.Routing.isSink = true
SN.node[1..24].Communication.Routing.isSink = false

SN.node[*].Communication.Routing.collectTraceInfo = false
#true
SN.node[*].Communication.Routing.lowRssi = -80.0


SN.node[0].xCoor = 10
SN.node[0].yCoor = 0
SN.node[1].xCoor = 0
SN.node[1].yCoor = 0
SN.node[2].xCoor = 5
SN.node[2].yCoor = 0
SN.node[3].xCoor = 15
SN.node[3].yCoor = 0
SN.node[4].xCoor = 10
SN.node[4].yCoor = 10

SN.node[5].xCoor = 20
SN.node[5].yCoor = 0
SN.node[6].xCoor = 0
SN.node[6].yCoor = 5
SN.node[7].xCoor = 5
SN.node[7].yCoor = 5
SN.node[8].xCoor = 10
SN.node[8].yCoor = 5
SN.node[9].xCoor = 15
SN.node[9].yCoor = 5

SN.node[10].xCoor = 20
SN.node[10].yCoor = 5
SN.node[11].xCoor = 0
SN.node[11].yCoor = 10
SN.node[12].xCoor = 5
SN.node[12].yCoor = 10
SN.node[13].xCoor = 15
SN.node[13].yCoor = 10
SN.node[14].xCoor = 20
SN.node[14].yCoor = 10
SN.node[15].xCoor = 0
SN.node[15].yCoor = 15

SN.node[16].xCoor = 5
SN.node[16].yCoor = 15
SN.node[17].xCoor = 10
SN.node[17].yCoor = 15
SN.node[18].xCoor = 15
SN.node[18].yCoor = 15
SN.node[19].xCoor = 20
SN.node[19].yCoor = 15

SN.node[20].xCoor = 0
SN.node[20].yCoor = 20
SN.node[21].xCoor = 5
SN.node[21].yCoor = 20
SN.node[22].xCoor = 10
SN.node[22].yCoor = 20
SN.node[23].xCoor = 15
SN.node[23].yCoor = 20
SN.node[24].xCoor = 20
SN.node[24].yCoor = 20




SN.node[*].Application.collectTraceInfo = false

[Config TesteDiagonal36]
#include ../Parameters/MAC/CSMA.ini

SN.field_x = 26 # meters
SN.field_y = 26	# meters

SN.node[*].Communication.MACProtocolName = "TunableMAC"
SN.node[*].Communication.MAC.dutyCycle = 1.0
SN.node[*].Communication.MAC.randomTxOffset = 0
SN.node[*].Communication.MAC.backoffType = 2 


SN.numNodes = 36
SN.node[*].Communication.Routing.numNodes = 36

SN.node[0..3].Communication.Routing.isController = false
SN.node[5..35].Communication.Routing.isController = false
SN.node[4].Communication.Routing.isController = true
SN.node[*].Communication.Routing.programmingDuration = 20

SN.node[*].Communication.Routing.programmingFirstTime = 7.5
SN.node[*].Communication.Routing.spaceDelay = 95
SN.node[*].Communication.Routing.dataTime = 4
SN.node[*].Communication.Routing.reportDuration = 6

SN.node[0].Communication.Routing.isSink = true
SN.node[1..35].Communication.Routing.isSink = false

SN.node[*].Communication.Routing.collectTraceInfo = false
#true
SN.node[*].Communication.Routing.lowRssi = -80.0


SN.node[0].xCoor = 10
SN.node[0].yCoor = 0
SN.node[1].xCoor = 0
SN.node[1].yCoor = 0
SN.node[2].xCoor = 5
SN.node[2].yCoor = 0
SN.node[3].xCoor = 15
SN.node[3].yCoor = 0
SN.node[4].xCoor = 10
SN.node[4].yCoor = 10

SN.node[5].xCoor = 20
SN.node[5].yCoor = 0
SN.node[6].xCoor = 25
SN.node[6].yCoor = 0
SN.node[7].xCoor = 0
SN.node[7].yCoor = 5
SN.node[8].xCoor = 5
SN.node[8].yCoor = 5
SN.node[9].xCoor = 10
SN.node[9].yCoor = 5

SN.node[10].xCoor = 15
SN.node[10].yCoor = 5
SN.node[11].xCoor = 20
SN.node[11].yCoor = 5
SN.node[12].xCoor = 25
SN.node[12].yCoor = 5
SN.node[13].xCoor = 0
SN.node[13].yCoor = 10
SN.node[14].xCoor = 5
SN.node[14].yCoor = 10
SN.node[15].xCoor = 15
SN.node[15].yCoor = 10

SN.node[16].xCoor = 20
SN.node[16].yCoor = 10
SN.node[17].xCoor = 25
SN.node[17].yCoor = 10
SN.node[18].xCoor = 0
SN.node[18].yCoor = 15
SN.node[19].xCoor = 5
SN.node[19].yCoor = 15

SN.node[20].xCoor = 10
SN.node[20].yCoor = 15
SN.node[21].xCoor = 15
SN.node[21].yCoor = 15
SN.node[22].xCoor = 20
SN.node[22].yCoor = 15
SN.node[23].xCoor = 25
SN.node[23].yCoor = 15
SN.node[24].xCoor = 0
SN.node[24].yCoor = 20
SN.node[25].xCoor = 5
SN.node[25].yCoor = 20

SN.node[26].xCoor = 10
SN.node[26].yCoor = 20
SN.node[27].xCoor = 15
SN.node[27].yCoor = 20
SN.node[28].xCoor = 20
SN.node[28].yCoor = 20
SN.node[29].xCoor = 25
SN.node[29].yCoor = 20

SN.node[30].xCoor = 0
SN.node[30].yCoor = 25
SN.node[31].xCoor = 5
SN.node[31].yCoor = 25
SN.node[32].xCoor = 10
SN.node[32].yCoor = 25
SN.node[33].xCoor = 15
SN.node[33].yCoor = 25
SN.node[34].xCoor = 20
SN.node[34].yCoor = 25
SN.node[35].xCoor = 25
SN.node[35].yCoor = 25




SN.node[*].Application.collectTraceInfo = false


[Config TesteDiagonal49]
#include ../Parameters/MAC/CSMA.ini

SN.field_x = 31 # meters
SN.field_y = 31	# meters

SN.node[*].Communication.MACProtocolName = "TunableMAC"
SN.node[*].Communication.MAC.dutyCycle = 1.0
SN.node[*].Communication.MAC.randomTxOffset = 0
SN.node[*].Communication.MAC.backoffType = 2 


SN.numNodes = 49
SN.node[*].Communication.Routing.numNodes = 49

SN.node[0..3].Communication.Routing.isController = false
SN.node[5..48].Communication.Routing.isController = false
SN.node[4].Communication.Routing.isController = true
SN.node[*].Communication.Routing.programmingDuration = 25

SN.node[*].Communication.Routing.programmingFirstTime = 7.5
SN.node[*].Communication.Routing.spaceDelay = 110
SN.node[*].Communication.Routing.dataTime = 7
SN.node[*].Communication.Routing.reportDuration = 4.5

SN.node[0].Communication.Routing.isSink = true
SN.node[1..48].Communication.Routing.isSink = false

SN.node[*].Communication.Routing.collectTraceInfo = false
#true
SN.node[*].Communication.Routing.lowRssi = -80.0


SN.node[0].xCoor = 15
SN.node[0].yCoor = 0
SN.node[1].xCoor = 0
SN.node[1].yCoor = 0
SN.node[2].xCoor = 5
SN.node[2].yCoor = 0
SN.node[3].xCoor = 10
SN.node[3].yCoor = 0
SN.node[4].xCoor = 15
SN.node[4].yCoor = 15

SN.node[5].xCoor = 20
SN.node[5].yCoor = 0
SN.node[6].xCoor = 25
SN.node[6].yCoor = 0
SN.node[7].xCoor = 30
SN.node[7].yCoor = 0
SN.node[8].xCoor = 0
SN.node[8].yCoor = 5
SN.node[9].xCoor = 5
SN.node[9].yCoor = 5

SN.node[10].xCoor = 10
SN.node[10].yCoor = 5
SN.node[11].xCoor = 15
SN.node[11].yCoor = 5
SN.node[12].xCoor = 20
SN.node[12].yCoor = 5
SN.node[13].xCoor = 25
SN.node[13].yCoor = 5
SN.node[14].xCoor = 30
SN.node[14].yCoor = 5
SN.node[15].xCoor = 0
SN.node[15].yCoor = 10

SN.node[16].xCoor = 5
SN.node[16].yCoor = 10
SN.node[17].xCoor = 10
SN.node[17].yCoor = 10
SN.node[18].xCoor = 15
SN.node[18].yCoor = 10
SN.node[19].xCoor = 20
SN.node[19].yCoor = 10

SN.node[20].xCoor = 25
SN.node[20].yCoor = 10
SN.node[21].xCoor = 30
SN.node[21].yCoor = 10
SN.node[22].xCoor = 0
SN.node[22].yCoor = 15
SN.node[23].xCoor = 5
SN.node[23].yCoor = 15
SN.node[24].xCoor = 10
SN.node[24].yCoor = 15
SN.node[25].xCoor = 20
SN.node[25].yCoor = 15

SN.node[26].xCoor = 25
SN.node[26].yCoor = 15
SN.node[27].xCoor = 30
SN.node[27].yCoor = 15
SN.node[28].xCoor = 0
SN.node[28].yCoor = 20
SN.node[29].xCoor = 5
SN.node[29].yCoor = 20

SN.node[30].xCoor = 10
SN.node[30].yCoor = 20
SN.node[31].xCoor = 15
SN.node[31].yCoor = 20
SN.node[32].xCoor = 20
SN.node[32].yCoor = 20
SN.node[33].xCoor = 25
SN.node[33].yCoor = 20
SN.node[34].xCoor = 30
SN.node[34].yCoor = 20
SN.node[35].xCoor = 0
SN.node[35].yCoor = 25

SN.node[36].xCoor = 5
SN.node[36].yCoor = 25
SN.node[37].xCoor = 10
SN.node[37].yCoor = 25
SN.node[38].xCoor = 15
SN.node[38].yCoor = 25
SN.node[39].xCoor = 20
SN.node[39].yCoor = 25

SN.node[40].xCoor = 25
SN.node[40].yCoor = 25
SN.node[41].xCoor = 30
SN.node[41].yCoor = 25
SN.node[42].xCoor = 0
SN.node[42].yCoor = 30
SN.node[43].xCoor = 5
SN.node[43].yCoor = 30
SN.node[44].xCoor = 10
SN.node[44].yCoor = 30
SN.node[45].xCoor = 15
SN.node[45].yCoor = 30

SN.node[46].xCoor = 20
SN.node[46].yCoor = 30
SN.node[47].xCoor = 25
SN.node[47].yCoor = 30
SN.node[48].xCoor = 30
SN.node[48].yCoor = 30





SN.node[*].Application.collectTraceInfo = false



[Config TesteDiagonal64]
#include ../Parameters/MAC/CSMA.ini

SN.field_x = 36 # meters
SN.field_y = 36	# meters

SN.node[*].Communication.MACProtocolName = "TunableMAC"
SN.node[*].Communication.MAC.dutyCycle = 1.0
SN.node[*].Communication.MAC.randomTxOffset = 0
SN.node[*].Communication.MAC.backoffType = 2 


SN.numNodes = 64
SN.node[*].Communication.Routing.numNodes = 64

SN.node[0..3].Communication.Routing.isController = false
SN.node[5..63].Communication.Routing.isController = false
SN.node[4].Communication.Routing.isController = true
SN.node[*].Communication.Routing.programmingDuration = 35

SN.node[*].Communication.Routing.programmingFirstTime = 7.5
SN.node[*].Communication.Routing.spaceDelay = 130
SN.node[*].Communication.Routing.dataTime = 9.5
SN.node[*].Communication.Routing.reportDuration = 5.5


SN.node[0].Communication.Routing.isSink = true
SN.node[1..63].Communication.Routing.isSink = false

SN.node[*].Communication.Routing.collectTraceInfo = false 
#true
SN.node[*].Communication.Routing.lowRssi = -80.0


SN.node[0].xCoor = 15
SN.node[0].yCoor = 0
SN.node[1].xCoor = 0
SN.node[1].yCoor = 0
SN.node[2].xCoor = 5
SN.node[2].yCoor = 0
SN.node[3].xCoor = 10
SN.node[3].yCoor = 0
SN.node[4].xCoor = 15
SN.node[4].yCoor = 15

SN.node[5].xCoor = 20
SN.node[5].yCoor = 0
SN.node[6].xCoor = 25
SN.node[6].yCoor = 0
SN.node[7].xCoor = 30
SN.node[7].yCoor = 0
SN.node[8].xCoor = 35
SN.node[8].yCoor = 0
SN.node[9].xCoor = 0
SN.node[9].yCoor = 5

SN.node[10].xCoor = 5
SN.node[10].yCoor = 5
SN.node[11].xCoor = 10
SN.node[11].yCoor = 5
SN.node[12].xCoor = 15
SN.node[12].yCoor = 5
SN.node[13].xCoor = 20
SN.node[13].yCoor = 5
SN.node[14].xCoor = 25
SN.node[14].yCoor = 5
SN.node[15].xCoor = 30
SN.node[15].yCoor = 5

SN.node[16].xCoor = 35
SN.node[16].yCoor = 5
SN.node[17].xCoor = 0
SN.node[17].yCoor = 10
SN.node[18].xCoor = 5
SN.node[18].yCoor = 10
SN.node[19].xCoor = 10
SN.node[19].yCoor = 10

SN.node[20].xCoor = 15
SN.node[20].yCoor = 10
SN.node[21].xCoor = 20
SN.node[21].yCoor = 10
SN.node[22].xCoor = 25
SN.node[22].yCoor = 10
SN.node[23].xCoor = 30
SN.node[23].yCoor = 10
SN.node[24].xCoor = 35
SN.node[24].yCoor = 10
SN.node[25].xCoor = 0
SN.node[25].yCoor = 15

SN.node[26].xCoor = 5
SN.node[26].yCoor = 15
SN.node[27].xCoor = 10
SN.node[27].yCoor = 15
SN.node[28].xCoor = 20
SN.node[28].yCoor = 15
SN.node[29].xCoor = 25
SN.node[29].yCoor = 15

SN.node[30].xCoor = 30
SN.node[30].yCoor = 15
SN.node[31].xCoor = 35
SN.node[31].yCoor = 15
SN.node[32].xCoor = 0
SN.node[32].yCoor = 20
SN.node[33].xCoor = 5
SN.node[33].yCoor = 20
SN.node[34].xCoor = 10
SN.node[34].yCoor = 20
SN.node[35].xCoor = 15
SN.node[35].yCoor = 20

SN.node[36].xCoor = 20
SN.node[36].yCoor = 20
SN.node[37].xCoor = 25
SN.node[37].yCoor = 20
SN.node[38].xCoor = 30
SN.node[38].yCoor = 20
SN.node[39].xCoor = 35
SN.node[39].yCoor = 20

SN.node[40].xCoor = 0
SN.node[40].yCoor = 25
SN.node[41].xCoor = 5
SN.node[41].yCoor = 25
SN.node[42].xCoor = 10
SN.node[42].yCoor = 25
SN.node[43].xCoor = 15
SN.node[43].yCoor = 25
SN.node[44].xCoor = 20
SN.node[44].yCoor = 25
SN.node[45].xCoor = 25
SN.node[45].yCoor = 25

SN.node[46].xCoor = 30
SN.node[46].yCoor = 25
SN.node[47].xCoor = 35
SN.node[47].yCoor = 25
SN.node[48].xCoor = 0
SN.node[48].yCoor = 30


SN.node[49].xCoor = 5
SN.node[49].yCoor = 30

SN.node[50].xCoor = 10
SN.node[50].yCoor = 30
SN.node[51].xCoor = 15
SN.node[51].yCoor = 30
SN.node[52].xCoor = 20
SN.node[52].yCoor = 30
SN.node[53].xCoor = 25
SN.node[53].yCoor = 30
SN.node[54].xCoor = 30
SN.node[54].yCoor = 30
SN.node[55].xCoor = 35
SN.node[55].yCoor = 30

SN.node[56].xCoor = 0
SN.node[56].yCoor = 35
SN.node[57].xCoor = 5
SN.node[57].yCoor = 35
SN.node[58].xCoor = 10
SN.node[58].yCoor = 35

SN.node[59].xCoor = 15
SN.node[59].yCoor = 35

SN.node[60].xCoor = 20
SN.node[60].yCoor = 35
SN.node[61].xCoor = 25
SN.node[61].yCoor = 35
SN.node[62].xCoor = 30
SN.node[62].yCoor = 35
SN.node[63].xCoor = 35
SN.node[63].yCoor = 35




SN.node[*].Application.collectTraceInfo = false



[Config TesteDiagonal81]
#include ../Parameters/MAC/CSMA.ini

SN.field_x = 41 # meters
SN.field_y = 41	# meters

SN.node[*].Communication.MACProtocolName = "TunableMAC"
SN.node[*].Communication.MAC.dutyCycle = 1.0
SN.node[*].Communication.MAC.randomTxOffset = 0
SN.node[*].Communication.MAC.backoffType = 2 


SN.numNodes = 81
SN.node[*].Communication.Routing.numNodes = 81

SN.node[0..3].Communication.Routing.isController = false
SN.node[5..80].Communication.Routing.isController = false
SN.node[4].Communication.Routing.isController = true
SN.node[*].Communication.Routing.programmingDuration = 45

SN.node[*].Communication.Routing.programmingFirstTime = 10
SN.node[*].Communication.Routing.spaceDelay = 150
SN.node[*].Communication.Routing.dataTime = 13
SN.node[*].Communication.Routing.reportDuration = 6.5


SN.node[0].Communication.Routing.isSink = true
SN.node[1..80].Communication.Routing.isSink = false

SN.node[*].Communication.Routing.collectTraceInfo = false 
#true
SN.node[*].Communication.Routing.lowRssi = -80.0


SN.node[0].xCoor = 20 
SN.node[0].yCoor = 0
SN.node[1].xCoor = 0
SN.node[1].yCoor = 0
SN.node[2].xCoor = 5
SN.node[2].yCoor = 0
SN.node[3].xCoor = 10
SN.node[3].yCoor = 0
SN.node[4].xCoor = 20
SN.node[4].yCoor = 20
SN.node[5].xCoor = 15
SN.node[5].yCoor = 0
SN.node[6].xCoor = 25
SN.node[6].yCoor = 0
SN.node[7].xCoor = 30
SN.node[7].yCoor = 0
SN.node[8].xCoor = 35
SN.node[8].yCoor = 0
SN.node[9].xCoor = 40
SN.node[9].yCoor = 0

SN.node[10].xCoor = 0
SN.node[10].yCoor = 5
SN.node[11].xCoor = 5
SN.node[11].yCoor = 5
SN.node[12].xCoor = 10
SN.node[12].yCoor = 5
SN.node[13].xCoor = 15
SN.node[13].yCoor = 5
SN.node[14].xCoor = 20
SN.node[14].yCoor = 5
SN.node[15].xCoor = 25
SN.node[15].yCoor = 5
SN.node[16].xCoor = 30
SN.node[16].yCoor = 5
SN.node[17].xCoor = 35
SN.node[17].yCoor = 5
SN.node[18].xCoor = 40
SN.node[18].yCoor = 5

SN.node[19].xCoor = 0
SN.node[19].yCoor = 10
SN.node[20].xCoor = 5
SN.node[20].yCoor = 10
SN.node[21].xCoor = 10
SN.node[21].yCoor = 10
SN.node[22].xCoor = 15
SN.node[22].yCoor = 10
SN.node[23].xCoor = 20
SN.node[23].yCoor = 10
SN.node[24].xCoor = 25
SN.node[24].yCoor = 10
SN.node[25].xCoor = 30
SN.node[25].yCoor = 10
SN.node[26].xCoor = 35
SN.node[26].yCoor = 10
SN.node[27].xCoor = 40
SN.node[27].yCoor = 10

SN.node[28].xCoor = 0
SN.node[28].yCoor = 15
SN.node[29].xCoor = 5
SN.node[29].yCoor = 15
SN.node[30].xCoor = 10
SN.node[30].yCoor = 15
SN.node[31].xCoor = 15
SN.node[31].yCoor = 15
SN.node[32].xCoor = 20
SN.node[32].yCoor = 15
SN.node[33].xCoor = 25
SN.node[33].yCoor = 15
SN.node[34].xCoor = 30
SN.node[34].yCoor = 15
SN.node[35].xCoor = 35
SN.node[35].yCoor = 15
SN.node[36].xCoor = 40
SN.node[36].yCoor = 15

SN.node[37].xCoor = 0
SN.node[37].yCoor = 20
SN.node[38].xCoor = 5
SN.node[38].yCoor = 20
SN.node[39].xCoor = 10
SN.node[39].yCoor = 20
SN.node[40].xCoor = 15
SN.node[40].yCoor = 20

SN.node[41].xCoor = 25
SN.node[41].yCoor = 20
SN.node[42].xCoor = 30
SN.node[42].yCoor = 20
SN.node[43].xCoor = 35
SN.node[43].yCoor = 20
SN.node[44].xCoor = 40
SN.node[44].yCoor = 20

SN.node[45].xCoor = 0
SN.node[45].yCoor = 25
SN.node[46].xCoor = 5
SN.node[46].yCoor = 25
SN.node[47].xCoor = 10
SN.node[47].yCoor = 25
SN.node[48].xCoor = 15
SN.node[48].yCoor = 25
SN.node[49].xCoor = 20
SN.node[49].yCoor = 25
SN.node[50].xCoor = 25
SN.node[50].yCoor = 25
SN.node[51].xCoor = 30
SN.node[51].yCoor = 25
SN.node[52].xCoor = 35
SN.node[52].yCoor = 25
SN.node[53].xCoor = 40
SN.node[53].yCoor = 25

SN.node[54].xCoor =  0
SN.node[54].yCoor = 30 
SN.node[55].xCoor =  5
SN.node[55].yCoor = 30  
SN.node[56].xCoor = 10
SN.node[56].yCoor = 30  
SN.node[57].xCoor = 15
SN.node[57].yCoor = 30  
SN.node[58].xCoor = 20
SN.node[58].yCoor = 30  
SN.node[59].xCoor = 25
SN.node[59].yCoor = 30  
SN.node[60].xCoor = 30
SN.node[60].yCoor = 30  
SN.node[61].xCoor = 35
SN.node[61].yCoor = 30  
SN.node[62].xCoor = 40  
SN.node[62].yCoor = 30

SN.node[63].xCoor =  0
SN.node[63].yCoor = 35
SN.node[64].xCoor =  5
SN.node[64].yCoor = 35
SN.node[65].xCoor = 10
SN.node[65].yCoor = 35
SN.node[66].xCoor = 15
SN.node[66].yCoor = 35
SN.node[67].xCoor = 20
SN.node[67].yCoor = 35
SN.node[68].xCoor = 25
SN.node[68].yCoor = 35
SN.node[69].xCoor = 30
SN.node[69].yCoor = 35
SN.node[70].xCoor = 35
SN.node[70].yCoor = 35
SN.node[71].xCoor = 40
SN.node[71].yCoor = 35

SN.node[72].xCoor =  0
SN.node[72].yCoor = 40
SN.node[73].xCoor =  5
SN.node[73].yCoor = 40
SN.node[74].xCoor = 10
SN.node[74].yCoor = 40
SN.node[75].xCoor = 15
SN.node[75].yCoor = 40
SN.node[76].xCoor = 20
SN.node[76].yCoor = 40
SN.node[77].xCoor = 25
SN.node[77].yCoor = 40
SN.node[78].xCoor = 30
SN.node[78].yCoor = 40
SN.node[79].xCoor = 35
SN.node[79].yCoor = 40
SN.node[80].xCoor = 40
SN.node[80].yCoor = 40




SN.node[*].Application.collectTraceInfo = false


[Config InterferenceTest2]

SN.node[0].MobilityManagerName = "NoMobilityManager"
SN.node[1].MobilityManagerName = "NoMobilityManager"
SN.node[2].MobilityManagerName = "LineMobilityManager"

SN.node[0].xCoor = 15
SN.node[0].yCoor = 50

SN.node[1].xCoor = 0
SN.node[1].yCoor = 50

SN.node[2].xCoor = 22
SN.node[2].yCoor = 0

SN.node[2].MobilityManager.updateInterval = 100
SN.node[2].MobilityManager.xCoorDestination = 22
SN.node[2].MobilityManager.yCoorDestination = 100
SN.node[2].MobilityManager.speed = 5


# =====================================================
# This cofiguration tests the CSInterrupt feature
# of the radio, as well as reads the RSSI value.
# In the trace output we see when the Carrier Sense 
# interrupt is received for different values of
# TX power and CCA threshold. Just two static nodes.
# =====================================================
[Config CSinterruptTest]

sim-time-limit = 1s

SN.node[*].Communication.Radio.carrierSenseInterruptEnabled = true

SN.numNodes = 2

SN.wirelessChannel.onlyStaticNodes = true
SN.node[0].MobilityManagerName = "NoMobilityManager"
SN.node[1].MobilityManagerName = "NoMobilityManager"

SN.node[0].xCoor = 10
SN.node[0].yCoor = 50
SN.node[0].zCoor = 0

SN.node[1].xCoor = 0
SN.node[1].yCoor = 50
SN.node[1].zCoor = 0

SN.node[*].Application.constantDataPayload = 200

SN.node[1].Communication.Radio.TxOutputPower = ${TxPower="-5dBm", "-10dBm", "-15dBm"}
SN.node[0].Communication.Radio.CCAthreshold = ${CCAthreshold=-95, -90, -85}


[Config varyInterferenceModel]
SN.node[*].Communication.Radio.collisionModel = ${InterfModel=0,1,2}
